6

 N                 -1.63089463   -0.97106837   -0.04162530
 H                 -1.29883145   -1.90610042    0.08266914
 H                 -1.39887292   -0.65443598   -0.96135887
 C                 -1.00079469   -0.09102690    0.95306113
 H                 -0.01971771   -0.31252361    1.31820107
 O                 -1.69899927    1.06108682    1.43269050


