7

 C                 -1.16691955   -0.99039797    0.00283939
 H                 -0.80320454   -1.99668217    0.00470803
 H                 -0.81870439   -0.48691741   -0.87474453
 O                 -0.68843522   -0.30844635    1.16511936
 H                 -1.01475897    0.59438808    1.16344283
 O                 -2.59686196   -1.00037836    0.01090788
 H                 -2.91808221   -1.45819204   -0.76936399


